
Note: Compatibility modes selected: hs a


Circuit: *================================================================

Doing analysis at TEMP = 27.000000 and TNOM = 27.000000

Using SPARSE 1.3 as Direct Linear Solver

Initial Transient Solution
--------------------------

Node                                   Voltage
----                                   -------
v_input                                      0
te                                           0
x_mon                                        0
g_mon                                  2.17391
vm_mon                                       0
is_mon                                       0
im_mon                                       0
vin#branch                                   0


No. of Data Rows : 100008
ngspice-44.2 done
